data/data/Three-wire-modified-phase-to-neutral/network_7/Feeder_2/LineCode.txt
! Subset of available target linecodes, which are closest to the original ones in terms of positive sequence impedance
! -------------------------------------------------------------------------------------------------------------------------------------------------------------------------------------------------
! original name: BS 5467 1997 table 10 25 (50 Hz)
New LineCode.LC2 nphases=3 Units=km
~ Rmatrix=(1.9185860813705298 0.9592965406852648 0.9592965406852648 | 0.9592965406852648 1.9185760813705297 0.9592965406852648 | 0.9592965406852648 0.9592965406852648 1.9185870813705295)
~ Xmatrix=(1.47953047158027 0.739778735790135 0.739778735790135 | 0.739778735790135 1.4794974715802698 0.739778735790135 | 0.739778735790135 0.739778735790135 1.47954347158027)
~ Cmatrix=(0.0 0.0 0.0 | 0.0 0.0 0.0 | 0.0 0.0 0.0)

! original name: BS 5467 1997 table 10 35 (50 Hz)
New LineCode.LC3 nphases=3 Units=km
~ Rmatrix=(1.5422306220419242 0.7711408110209621 0.7711408110209621 | 0.7711408110209621 1.5422876220419242 0.7711408110209621 | 0.7711408110209621 0.7711408110209621 1.542334622041924)
~ Xmatrix=(1.4159170228853533 0.7080275114426766 0.7080275114426766 | 0.7080275114426766 1.4160710228853532 0.7080275114426766 | 0.7080275114426766 0.7080275114426766 1.4161980228853532)
~ Cmatrix=(0.0 0.0 0.0 | 0.0 0.0 0.0 | 0.0 0.0 0.0)

! original name: BS 5467 1997 table 10 70 (50 Hz)
New LineCode.LC4 nphases=3 Units=km
~ Rmatrix=(1.128812703091775 0.5644203515458874 0.5644203515458874 | 0.5644203515458874 1.1288969534830022 0.5644203515458874 | 0.5644203515458874 0.5644203515458874 1.1289199534830021)
~ Xmatrix=(1.1766846318558275 0.5883693159279137 0.5883693159279137 | 0.5883693159279137 1.1768326592587033 0.5883693159279137 | 0.5883693159279137 0.5883693159279137 1.1768746592587032)
~ Cmatrix=(0.0 0.0 0.0 | 0.0 0.0 0.0 | 0.0 0.0 0.0)

! original name: BS 6480 1988 table 17 Cu 120 (50 Hz)
New LineCode.LC5 nphases=3 Units=km
~ Rmatrix=(1.5118039220079 0.75590446100395 0.75590446100395 | 0.75590446100395 1.5118049220079 0.75590446100395 | 0.75590446100395 0.75590446100395 1.5118109220079)
~ Xmatrix=(0.796938780704967 0.3984688903524835 0.3984688903524835 | 0.3984688903524835 0.796937780704967 0.3984688903524835 | 0.3984688903524835 0.3984688903524835 0.796937780704967)
~ Cmatrix=(0.0 0.0 0.0 | 0.0 0.0 0.0 | 0.0 0.0 0.0)

! original name: BS 6480 1988 table 17 Cu 16 (50 Hz)
New LineCode.LC6 nphases=3 Units=km
~ Rmatrix=(4.550221665638708 2.275111332819354 2.275111332819354 | 2.275111332819354 4.550221665638708 2.275111332819354 | 2.275111332819354 2.275111332819354 4.550222665638708)
~ Xmatrix=(2.093147633045342 1.046576816522671 1.046576816522671 | 1.046576816522671 2.0931486330453417 1.046576816522671 | 1.046576816522671 1.046576816522671 2.093150633045342)
~ Cmatrix=(0.0 0.0 0.0 | 0.0 0.0 0.0 | 0.0 0.0 0.0)

! original name: Waveform 4-core 185 IEC 60287 (50 Hz)
New LineCode.LC7 nphases=3 Units=km
~ Rmatrix=(0.6433998192124523 0.32169990960622613 0.32169990960622613 | 0.32169990960622613 0.6433998192124523 0.32169990960622613 | 0.32169990960622613 0.32169990960622613 0.6433998192124523)
~ Xmatrix=(0.23975956123052877 0.11987978061526439 0.11987978061526439 | 0.11987978061526439 0.23975956123052877 0.11987978061526439 | 0.11987978061526439 0.11987978061526439 0.23975956123052877)
~ Cmatrix=(0.0 0.0 0.0 | 0.0 0.0 0.0 | 0.0 0.0 0.0)

! original name: Waveform 4-core 300 IEC 60287 (50 Hz)
New LineCode.LC8 nphases=3 Units=km
~ Rmatrix=(0.5172933243889635 0.25864666219448174 0.25864666219448174 | 0.25864666219448174 0.5172933243889635 0.25864666219448174 | 0.25864666219448174 0.25864666219448174 0.5172933243889635)
~ Xmatrix=(0.2320561349401442 0.1160280674700721 0.1160280674700721 | 0.1160280674700721 0.2320561349401442 0.1160280674700721 | 0.1160280674700721 0.1160280674700721 0.2320561349401442)
~ Cmatrix=(0.0 0.0 0.0 | 0.0 0.0 0.0 | 0.0 0.0 0.0)
! -------------------------------------------------------------------------------------------------------------------------------------------------------------------------------------------------